# Monolayer graphene primitive cell (hexagonal)
# a = 2.46 Angstrom, vacuum = 20 Angstrom along z
# Two atoms basis: (0,0,0) and (1/3,2/3,0)
CRYSTAL
PRIMVEC
 2.460000   0.000000   0.000000
 1.230000   2.131630   0.000000
 0.000000   0.000000  20.000000
PRIMCOORD
 2 1
 C   0.000000   0.000000   0.000000
 C   1.640000   1.421087   0.000000
